Version 4
SHEET 1 1776 920
WIRE 736 -112 576 -112
WIRE 576 -96 576 -112
WIRE 576 16 576 -16
WIRE 576 48 576 16
WIRE 304 112 176 112
WIRE 528 112 384 112
WIRE 176 144 176 112
WIRE 736 144 736 -112
WIRE 176 240 176 224
WIRE 736 240 736 224
WIRE 736 240 176 240
WIRE 576 288 576 112
FLAG 576 288 0
FLAG 576 16 VAK
SYMBOL voltage 176 128 R0
WINDOW 123 0 0 Left 0
WINDOW 39 0 0 Left 0
SYMATTR InstName V1
SYMATTR Value 1.5
SYMBOL voltage 736 128 R0
WINDOW 123 0 0 Left 0
WINDOW 39 0 0 Left 0
SYMATTR InstName V2
SYMATTR Value 0
SYMBOL res 560 -112 R0
SYMATTR InstName R1
SYMATTR Value 4.7k
SYMBOL res 400 96 R90
WINDOW 0 0 56 VBottom 2
WINDOW 3 32 56 VTop 2
SYMATTR InstName R2
SYMATTR Value 4.7k
SYMBOL Misc\\SCR 560 48 R0
SYMATTR InstName U1
SYMATTR Value BT151-800R
TEXT 832 184 Left 2 !.SUBCKT 2N5061 A G K ; Motorola 2N5061 - model default\n+params: Vdrm=60 Itrms=0.8A Itsm=10A Igt=200uA Vgt=0.8\n+ Ihold=5mA Ileak=50uA Cak=50pF GRratio=4\n \nQ1 2 G K 0 QNG\nQ2 1 3 K 0 QNL OFF\nQ3 3 1 A 0 QPL OFF\nD1 1 2 Drev\nD2 A 4 DVA\nD3 K 4 DVA\nI1 A 1 {Ihold} load\nI2 3 K {Ihold} load\nRS A 1 1000k\nRL A K {Rleak}\nC1 A K {Cak}\n \n.param Grbe=(Vgt/Igt)/GRratio\n.param Ggain=Ihold/Igt\n.param Rleak=Vdrm/Ileak\n \n.model QNL NPN(IS=640F Bf=50 RC=.45 TF=5.95u)\n.model QNG NPN(Bf=Ggain Rb=Grbe Vje=Vgt Tf=.3nS Tr=6nS Cje=2pF Cjc=1pF)\n.model QPL PNP(IS=640F Bf=50 RC=.45 TF=5.95u)\n.model DVA D(Vj=.71 BV=Vdrm Cjo=1p)\n.model Drev D(Vfwd=.71)\n.ENDS
TEXT 840 -40 Left 2 !.SUBCKT BT151-800R A G K ; Philips BT151-800R\nXSCR1 A G K 2N5061\n+params: Vdrm=800 Itrms=12 Itsm=120 Igt=15mA Vgt=1.5\n+ Ihold=20mA Ileak=500uA GRratio=3\n.ENDS
TEXT 168 272 Left 2 !.dc v1 0.2 1.5 0.1
