Version 4.1
SHEET 1 1848 900
WIRE 272 -16 64 -16
WIRE 752 -16 272 -16
WIRE 752 0 752 -16
WIRE 272 64 256 64
WIRE 752 112 752 80
WIRE 64 176 64 -16
WIRE 256 176 256 64
WIRE 432 176 256 176
WIRE 576 176 512 176
WIRE 704 176 640 176
WIRE 256 208 256 176
WIRE 256 352 256 288
WIRE 64 432 64 256
WIRE 256 432 256 416
WIRE 256 432 64 432
WIRE 752 432 752 176
WIRE 752 432 256 432
WIRE 256 448 256 432
FLAG 256 448 0
SYMBOL voltage 64 160 R0
WINDOW 123 0 0 Left 0
WINDOW 39 0 0 Left 0
SYMATTR InstName V1
SYMATTR Value SINE(0 20 50)
SYMBOL res 256 -32 R0
SYMATTR InstName R1
SYMATTR Value {1.5+(5k-p)}
SYMBOL res 240 192 R0
SYMATTR InstName R2
SYMATTR Value {p}
SYMBOL res 528 160 R90
WINDOW 0 0 56 VBottom 2
WINDOW 3 32 56 VTop 2
SYMATTR InstName R3
SYMATTR Value 1k
SYMBOL res 768 96 R180
WINDOW 0 36 76 Left 2
WINDOW 3 36 40 Left 2
SYMATTR InstName R4
SYMATTR Value 1k
SYMBOL cap 240 352 R0
SYMATTR InstName C1
SYMATTR Value 4.7µ
SYMBOL Misc\\SCR 736 112 R0
SYMATTR InstName U1
SYMATTR Value BT151-800R
SYMBOL diode 576 192 R270
WINDOW 0 32 32 VTop 2
WINDOW 3 0 32 VBottom 2
SYMATTR InstName D1
TEXT 848 8 Left 2 !.SUBCKT BT151-800R A G K ; Philips BT151-800R\nXSCR1 A G K 2N5061\n+params: Vdrm=800 Itrms=12 Itsm=120 Igt=15mA Vgt=1.5\n+ Ihold=20mA Ileak=500uA GRratio=3\n.ENDS
TEXT 904 184 Left 2 !.SUBCKT 2N5061 A G K ; Motorola 2N5061 - model default\n+params: Vdrm=60 Itrms=0.8A Itsm=10A Igt=200uA Vgt=0.8\n+ Ihold=5mA Ileak=50uA Cak=50pF GRratio=4\n \nQ1 2 G K 0 QNG\nQ2 1 3 K 0 QNL OFF\nQ3 3 1 A 0 QPL OFF\nD1 1 2 Drev\nD2 A 4 DVA\nD3 K 4 DVA\nI1 A 1 {Ihold} load\nI2 3 K {Ihold} load\nRS A 1 1000k\nRL A K {Rleak}\nC1 A K {Cak}\n \n.param Grbe=(Vgt/Igt)/GRratio\n.param Ggain=Ihold/Igt\n.param Rleak=Vdrm/Ileak\n \n.model QNL NPN(IS=640F Bf=50 RC=.45 TF=5.95u)\n.model QNG NPN(Bf=Ggain Rb=Grbe Vje=Vgt Tf=.3nS Tr=6nS Cje=2pF Cjc=1pF)\n.model QPL PNP(IS=640F Bf=50 RC=.45 TF=5.95u)\n.model DVA D(Vj=.71 BV=Vdrm Cjo=1p)\n.model Drev D(Vfwd=.71)\n.ENDS
TEXT 72 -40 Left 2 !.step param p list 100 1k 3k 4.9k
TEXT 72 -64 Left 2 !.tran 0 1 .96 1m
