Version 4.1
SHEET 1 1656 968
WIRE 576 80 496 80
WIRE 672 80 656 80
WIRE -48 96 -80 96
WIRE 64 96 32 96
WIRE 496 112 496 80
WIRE 64 144 64 96
WIRE 64 256 64 224
WIRE 496 288 496 192
WIRE 64 352 64 336
WIRE 176 352 64 352
WIRE 448 352 256 352
WIRE -80 432 -80 96
WIRE 240 432 -80 432
WIRE 496 432 496 352
WIRE 496 432 240 432
WIRE 672 432 672 80
WIRE 672 432 496 432
WIRE 240 448 240 432
FLAG 240 448 0
SYMBOL voltage 48 96 R90
WINDOW 0 -32 56 VBottom 2
WINDOW 3 32 56 VTop 2
WINDOW 123 0 0 Left 0
WINDOW 39 0 0 Left 0
SYMATTR InstName V1
SYMATTR Value 20
SYMBOL voltage 560 80 R270
WINDOW 0 32 56 VTop 2
WINDOW 3 -32 56 VBottom 2
SYMATTR InstName V2
SYMATTR Value 0
SYMBOL res 48 128 R0
SYMATTR InstName R1
SYMATTR Value 3k3
SYMBOL res 272 336 R90
WINDOW 0 0 56 VBottom 2
WINDOW 3 32 56 VTop 2
SYMATTR InstName R2
SYMATTR Value 4.7k
SYMBOL res 480 96 R0
SYMATTR InstName R3
SYMATTR Value 47k
SYMBOL Misc\\SCR 480 288 R0
SYMATTR InstName U1
SYMATTR Value BT151-800R
SYMBOL res 48 240 R0
SYMATTR InstName R4
SYMATTR Value {p}
TEXT 712 80 Left 2 !.SUBCKT BT151-800R A G K ; Philips BT151-800R\nXSCR1 A G K 2N5061\n+params: Vdrm=800 Itrms=12 Itsm=120 Igt=15mA Vgt=1.5\n+ Ihold=20mA Ileak=500uA GRratio=3\n.ENDS
TEXT 712 232 Left 2 !.SUBCKT 2N5061 A G K ; Motorola 2N5061 - model default\n+params: Vdrm=60 Itrms=0.8A Itsm=10A Igt=200uA Vgt=0.8\n+ Ihold=5mA Ileak=50uA Cak=50pF GRratio=4\n \nQ1 2 G K 0 QNG\nQ2 1 3 K 0 QNL OFF\nQ3 3 1 A 0 QPL OFF\nD1 1 2 Drev\nD2 A 4 DVA\nD3 K 4 DVA\nI1 A 1 {Ihold} load\nI2 3 K {Ihold} load\nRS A 1 1000k\nRL A K {Rleak}\nC1 A K {Cak}\n \n.param Grbe=(Vgt/Igt)/GRratio\n.param Ggain=Ihold/Igt\n.param Rleak=Vdrm/Ileak\n \n.model QNL NPN(IS=640F Bf=50 RC=.45 TF=5.95u)\n.model QNG NPN(Bf=Ggain Rb=Grbe Vje=Vgt Tf=.3nS Tr=6nS Cje=2pF Cjc=1pF)\n.model QPL PNP(IS=640F Bf=50 RC=.45 TF=5.95u)\n.model DVA D(Vj=.71 BV=Vdrm Cjo=1p)\n.model Drev D(Vfwd=.71)\n.ENDS
TEXT -24 8 Left 2 !.param p=1.2
TEXT -80 952 Left 2 !.tran 0 10 0 .1
