Version 4.1
SHEET 1 1904 944
WIRE 192 0 16 0
WIRE 848 0 624 0
WIRE 192 32 192 0
WIRE 624 32 624 0
WIRE 16 160 16 0
WIRE 624 160 624 112
WIRE 848 176 848 0
WIRE 192 224 192 112
WIRE 208 224 192 224
WIRE 368 224 288 224
WIRE 576 224 448 224
WIRE 16 336 16 240
WIRE 448 336 16 336
WIRE 624 336 624 224
WIRE 624 336 448 336
WIRE 848 336 848 256
WIRE 848 336 624 336
WIRE 448 352 448 336
FLAG 448 352 0
SYMBOL voltage 16 144 R0
SYMATTR InstName V1
SYMATTR Value 20
SYMBOL voltage 848 160 R0
WINDOW 123 0 0 Left 0
WINDOW 39 0 0 Left 0
SYMATTR InstName V2
SYMATTR Value 25
SYMBOL res 176 16 R0
SYMATTR InstName R1
SYMATTR Value 3K3
SYMBOL res 304 208 R90
WINDOW 0 0 56 VBottom 2
WINDOW 3 32 56 VTop 2
SYMATTR InstName POT
SYMATTR Value 2K5
SYMBOL res 608 16 R0
SYMATTR InstName R3
SYMATTR Value 4K7
SYMBOL res 464 208 R90
WINDOW 0 0 56 VBottom 2
WINDOW 3 32 56 VTop 2
SYMATTR InstName R4
SYMATTR Value 4K7
SYMBOL Misc\\SCR 608 160 R0
SYMATTR InstName U1
SYMATTR Value BT151-800R
TEXT 960 48 Left 2 !.SUBCKT BT151-800R A G K ; Philips BT151-800R\nXSCR1 A G K 2N5061\n+params: Vdrm=800 Itrms=12 Itsm=120 Igt=15mA Vgt=1.5\n+ Ihold=20mA Ileak=500uA GRratio=3\n.ENDS
TEXT 960 208 Left 2 !.SUBCKT 2N5061 A G K ; Motorola 2N5061 - model default\n+params: Vdrm=60 Itrms=0.8A Itsm=10A Igt=200uA Vgt=0.8\n+ Ihold=5mA Ileak=50uA Cak=50pF GRratio=4\n \nQ1 2 G K 0 QNG\nQ2 1 3 K 0 QNL OFF\nQ3 3 1 A 0 QPL OFF\nD1 1 2 Drev\nD2 A 4 DVA\nD3 K 4 DVA\nI1 A 1 {Ihold} load\nI2 3 K {Ihold} load\nRS A 1 1000k\nRL A K {Rleak}\nC1 A K {Cak}\n \n.param Grbe=(Vgt/Igt)/GRratio\n.param Ggain=Ihold/Igt\n.param Rleak=Vdrm/Ileak\n \n.model QNL NPN(IS=640F Bf=50 RC=.45 TF=5.95u)\n.model QNG NPN(Bf=Ggain Rb=Grbe Vje=Vgt Tf=.3nS Tr=6nS Cje=2pF Cjc=1pF)\n.model QPL PNP(IS=640F Bf=50 RC=.45 TF=5.95u)\n.model DVA D(Vj=.71 BV=Vdrm Cjo=1p)\n.model Drev D(Vfwd=.71)\n.ENDS
TEXT 24 408 Left 2 !.tran 0 0.3 0
